THERMO ALL
   270.000  1000.000  3000.000
H2                      H   2               G    300.00   5000.00 1000.00      1
 .299142220E+01 .700064410E-03-.563382800E-07-.923157820E-11 .158275200E-14    2
-.835033546E+03-.135510641E+01 .329812400E+01 .824944120E-03-.814301470E-06    3
-.947543430E-10 .413487200E-12-.101252100E+04-.329409400E+01                   4
O2                      O   2               G    270.00   5000.00 1000.00      1
 .369757685E+01 .613519690E-03-.125884200E-06 .177528100E-10-.113643500E-14    2
-.123392966E+04 .318917125E+01 .321293600E+01 .112748610E-02-.575614990E-06    3
 .131387700E-08-.876855390E-12-.100524900E+04 .603473900E+01                   4
H2O               L 8/89H   2O   1          G 200.000  3500.000  1000.000      1
 3.03399249E+00 2.17691804E-03-1.64072518E-07-9.70419870E-11 1.68200992E-14    2
-3.00042971E+04 4.96677010E+00 4.19864056E+00-2.03643410E-03 6.52040211E-06    3
-5.48797062E-09 1.77197817E-12-3.02937267E+04-8.49032208E-01                   4
H                 L 7/88H   1               G 200.000  3500.000  1000.000      1
 2.50000001E+00-2.30842973E-11 1.61561948E-14-4.73515235E-18 4.98197357E-22    2
 2.54736599E+04-4.46682914E-01 2.50000000E+00 7.05332819E-13-1.99591964E-15    3
 2.30081632E-18-9.27732332E-22 2.54736599E+04-4.46682853E-01                   4
OH                RUS 78O   1H   1          G 200.000  3500.000  1000.000      1
 3.09288767E+00 5.48429716E-04 1.26505228E-07-8.79461556E-11 1.17412376E-14    2
 3.85865700E+03 4.47669610E+00 3.99201543E+00-2.40131752E-03 4.61793841E-06    3
-3.88113333E-09 1.36411470E-12 3.61508056E+03-1.03925458E-01                   4
O                       O   1               G    300.00   5000.00 1000.00      1
 2.56942078E+00-8.59741137E-05 4.19484589E-08-1.00177799E-11 1.22833691E-15    2
 2.92175791E+04 4.78433864E+00 3.16826710E+00-3.27931884E-03 6.64306396E-06    3
-6.12806624E-09 2.11265971E-12 2.91222592E+04 2.05193346E+00                   4
HCOO              T04/97H   1C   1O   2     G 298.150  5000.000  1000.000      1
 5.97791811E+00 3.24247847E-03-1.46666291E-06 2.91808902E-10-2.10704956E-14    2
-2.04910217E+04-7.12854015E+00-3.01936623E+01 2.54607495E-01-6.43484728E-04    3
 6.92943698E-07-2.65871657E-10-1.59887826E+04 1.47958586E+02-1.81158000E+04    4
COOH              RUS 79H   1C   1O   2     G 200.000  6000.000  1000.000      1
 0.53920264E+01 0.41122622E-02-0.14819726E-05 0.23988016E-09-0.14390635E-13    2
-0.27670863E+05-0.22350810E+01 0.29220825E+01 0.76245184E-02 0.32988630E-05    3
-0.10713524E-07 0.51158655E-11-0.26838359E+05 0.11292583E+02-0.25617866E+05    4
CO                TPIS79C   1O   1          G 200.000  3500.000  1000.000      1
 2.71518561E+00 2.06252743E-03-9.98825771E-07 2.30053008E-10-2.03647716E-14    2
-1.41518724E+04 7.81868772E+00 3.57953347E+00-6.10353680E-04 1.01681433E-06    3
 9.07005884E-10-9.04424499E-13-1.43440860E+04 3.50840928E+00                   4
CO2               L 7/88C   1O   2          G 200.000  3500.000  1000.000      1
 3.85746029E+00 4.41437026E-03-2.21481404E-06 5.23490188E-10-4.72084164E-14    2
-4.87591660E+04 2.27163806E+00 2.35677352E+00 8.98459677E-03-7.12356269E-06    3
 2.45919022E-09-1.43699548E-13-4.83719697E+04 9.90105222E+00                   4
C                 L11/88C   1               G 200.000  3500.000  1000.000      1
 2.49266888E+00 4.79889284E-05-7.24335020E-08 3.74291029E-11-4.87277893E-15    2
 8.54512953E+04 4.80150373E+00 2.55423955E+00-3.21537724E-04 7.33792245E-07    3
-7.32234889E-10 2.66521446E-13 8.54438832E+04 4.53130848E+00                   4
CH                TPIS79C   1H   1          G 200.000  3500.000  1000.000      1
 2.87846473E+00 9.70913681E-04 1.44445655E-07-1.30687849E-10 1.76079383E-14    2
 7.10124364E+04 5.48497999E+00 3.48981665E+00 3.23835541E-04-1.68899065E-06    3
 3.16217327E-09-1.40609067E-12 7.07972934E+04 2.08401108E+00                   4
CH2               L S/93C   1H   2          G 200.000  3500.000  1000.000      1
 2.87410113E+00 3.65639292E-03-1.40894597E-06 2.60179549E-10-1.87727567E-14    2
 4.62636040E+04 6.17119324E+00 3.76267867E+00 9.68872143E-04 2.79489841E-06    3
-3.85091153E-09 1.68741719E-12 4.60040401E+04 1.56253185E+00                   4
CH3               L11/89C   1H   3          G 200.000  3500.000  1000.000      1
 2.28571772E+00 7.23990037E-03-2.98714348E-06 5.95684644E-10-4.67154394E-14    2
 1.67755843E+04 8.48007179E+00 3.67359040E+00 2.01095175E-03 5.73021856E-06    3
-6.87117425E-09 2.54385734E-12 1.64449988E+04 1.60456433E+00                   4
CH4               L 8/88C   1H   4          G 200.000  3500.000  1000.000      1
 7.48514950E-02 1.33909467E-02-5.73285809E-06 1.22292535E-09-1.01815230E-13    2
-9.46834459E+03 1.84373180E+01 5.14987613E+00-1.36709788E-02 4.91800599E-05    3
-4.84743026E-08 1.66693956E-11-1.02466476E+04-4.64130376E+00                   4
N2                      N   2               G    300.00   5000.00 1000.00      1
 .292663788E+01 .148797700E-02-.568476030E-06 .100970400E-09-.675335090E-14    2
-.922795384E+03 .598054018E+01 .329867700E+01 .140823990E-02-.396322180E-05    3
 .564151480E-08-.244485400E-11-.102090000E+04 .395037200E+01                   4
END
