/*--------------------------------*- C++ -*----------------------------------*\
| =========                 |                                                 |
| \\      /  F ield         | OpenFOAM: The Open Source CFD Toolbox           |
|  \\    /   O peration     | Version:  5.0                                   |
|   \\  /    A nd           | Web:      www.OpenFOAM.org                      |
|    \\/     M anipulation  |                                                 |
\*---------------------------------------------------------------------------*/
FoamFile
{
    version     2.0;
    format      binary;
    class       volScalarField;
    location    "0";
    object      T;
}
// * * * * * * * * * * * * * * * * * * * * * * * * * * * * * * * * * * * * * //

dimensions      [0 0 0 1 0 0 0];

internalField   uniform 850;

boundaryField
{
    inlet
    {
        type            fixedValue;
        value           uniform 850;
    }
    outlet
    {
        type            zeroGradient;
    }
    
    inertWall
    {
        type            zeroGradient;
    }
    reactingWall
    {
        type            catalyticWall;
    }
    
}


// ************************************************************************* //
