/*--------------------------------*- C++ -*----------------------------------*\
  =========                 |
  \\      /  F ield         | OpenFOAM: The Open Source CFD Toolbox
   \\    /   O peration     | Website:  https://openfoam.org
    \\  /    A nd           | Version:  8
     \\/     M anipulation  |
\*---------------------------------------------------------------------------*/
FoamFile
{
    version     2.0;
    format      ascii;
    class       polyBoundaryMesh;
    location    "constant/polyMesh";
    object      boundary;
}
// * * * * * * * * * * * * * * * * * * * * * * * * * * * * * * * * * * * * * //

5
(
    reactingWall
    {
        type            wall;
        inGroups        List<word> 1(wall);
        nFaces          75;
        startFace       3490;
    }
    inertWall
    {
        type            wall;
        inGroups        List<word> 1(wall);
        nFaces          105;
        startFace       3565;
    }
    inlet
    {
        type            patch;
        nFaces          20;
        startFace       3670;
    }
    outlet
    {
        type            patch;
        nFaces          20;
        startFace       3690;
    }
    defaultFaces
    {
        type            empty;
        inGroups        List<word> 1(empty);
        nFaces          3600;
        startFace       3710;
    }
)

// ************************************************************************* //
