/*--------------------------------*- C++ -*----------------------------------*\
| =========                 |                                                 |
| \\      /  F ield         | OpenFOAM: The Open Source CFD Toolbox           |
|  \\    /   O peration     | Version:  1.7.1                                 |
|   \\  /    A nd           | Web:      www.OpenFOAM.com                      |
|    \\/     M anipulation  |                                                 |
\*---------------------------------------------------------------------------*/
FoamFile
{
    version     2.0;
    format      ascii;
    class       dictionary;
    object      blockMeshDict;
}
// * * * * * * * * * * * * * * * * * * * * * * * * * * * * * * * * * * * * * //

convertToMeters 0.01;

vertices        
(
	(0.0	0.0	0.0)        //0
  	(5.0	0.0	0.0)        //1
	(5.0	0.01	0.0)        //2
	(0.0	0.01	0.0)        //3
	(0.0	0.0	5.0)        //4
  	(5.0	0.0	5.0)        //5
	(5.0	0.01	5.0)        //6
	(0.0	0.01	5.0)        //7
  	(25.0	0.0	0.0)        //8
	(25.0	0.01	0.0)        //9
	(25.0	0.01	5.0)        //10
  	(25.0	0.0	5.0)        //11
);

edges
(
);

blocks
(
	// Central
	hex (0 1 2 3 4 5 6 7)       (15 1 20) simpleGrading (1  1  1)
	hex (1 8 9 2 5 11 10 6)     (75 1 20) simpleGrading (1  1  1)

);

patches
(
   wall reactingWall
   (
	(5 11 10 6)
   )

   wall inertWall
   (
	(4 5 6 7)
	(0 3 2 1)
	(1 2 9 8)
   )

   patch inlet
   (
	(0 4 7 3)
   )

   patch outlet
   (
	(8 9 10 11)
   )

);

mergePatchPairs 
(
);

// ************************************************************************* //
